Circuit: * F:\electricalDesignProjects\beverageWarmer1\ltSpiceSim\beverageWarmerSim2\beverageWarmerSim2.asc

Warning: Multiple definitions of model "aons66402" Type: Vdmos1
WARNING: Less than two connections to node NC_01.  This node is used by V2.
Direct Newton iteration failed to find .op point.  (Use ".option noopiter" to skip.)
Starting Gmin stepping
Gmin = 10
Gmin = 1.07374
Gmin = 0.115292
Gmin = 0.0123794
Gmin = 0.00132923
Gmin = 0.000142725
Gmin = 1.5325e-005
Gmin = 1.6455e-006
vernier = 0.5
vernier = 0.25
vernier = 0.125
vernier = 0.0625
vernier = 0.03125
vernier = 0.015625
vernier = 0.0078125
vernier = 0.00390625
vernier = 0.00195313
Gmin = 1.6455e-006
vernier = 0.000976563
vernier = 0.000488281
Gmin = 0
Gmin stepping failed

Starting source stepping with srcstepmethod=0
Source Step = 3.0303%
Source Step = 33.3333%
Source Step = 63.6364%
Source Step = 72.7332%
Starting source stepping with srcstepmethod=1
Source Step = 3.0303%
Source Step = 33.3333%
Source Step = 63.6364%
Source Step = 93.9394%
Source Step = 100%
Source Step = 100%
Source Step = 100%
Source Step = 100%
Source stepping succeeded in finding the operating point.


Date: Mon May 10 15:27:18 2021
Total elapsed time: 1.136 seconds.

tnom = 27
temp = 27
method = modified trap
totiter = 36449
traniter = 30886
tranpoints = 12316
accept = 11488
rejected = 828
matrix size = 49
fillins = 71
solver = Normal
Thread vector: 17.9/7.6[4] 2.9/2.7[1] 3.1/2.5[4] 0.2/2.3[1]  2592/500
Matrix Compiler1: 5.54 KB object code size  1.5/0.6/[0.4]
Matrix Compiler2: 5.77 KB object code size  0.5/0.8/[0.4]

