Circuit: * F:\electricalDesignProjects\phoniex-down\ltSpiceSim\beverageWarmerSim2\beverageWarmerSim2.asc

Warning: Multiple definitions of model "aons66402" Type: Vdmos1
WARNING: Less than two connections to node NC_01.  This node is used by V2.
Direct Newton iteration failed to find .op point.  (Use ".option noopiter" to skip.)
Starting Gmin stepping
Gmin = 10
Gmin = 1.07374
Gmin = 0.115292
Gmin = 0.0123794
Gmin = 0.00132923
Gmin = 0.000142725
Gmin = 1.5325e-005
Gmin = 1.6455e-006
vernier = 0.5
vernier = 0.25
vernier = 0.125
vernier = 0.0625
vernier = 0.03125
vernier = 0.015625
vernier = 0.0078125
vernier = 0.00390625
vernier = 0.00195313
Gmin = 1.6455e-006
vernier = 0.000976563
vernier = 0.000488281
Gmin = 0
Gmin stepping failed

Starting source stepping with srcstepmethod=0
Source Step = 3.0303%
Source Step = 33.3333%
Source Step = 63.6364%
Source Step = 72.7332%
Starting source stepping with srcstepmethod=1
Source Step = 3.0303%
Source Step = 33.3333%
Source Step = 63.6364%
Source Step = 93.9394%
Source Step = 100%
Source Step = 100%
Source Step = 100%
Source Step = 100%
Source stepping succeeded in finding the operating point.


Date: Thu May 20 21:13:40 2021
Total elapsed time: 1.951 seconds.

tnom = 27
temp = 27
method = modified trap
totiter = 95335
traniter = 89394
tranpoints = 24599
accept = 19456
rejected = 5143
matrix size = 49
fillins = 78
solver = Normal
Thread vector: 16.2/7.6[4] 3.0/2.4[3] 3.0/2.8[1] 0.2/1.0[1]  2592/500
Matrix Compiler1: 6.76 KB object code size  1.4/0.6/[0.4]
Matrix Compiler2: 5.79 KB object code size  0.6/0.8/[0.4]

