Circuit: * F:\electricalDesignProjects\phoniex-down\ltSpiceSim\beverageWarmerSim2\beverageWarmerSim2.asc

Warning: Multiple definitions of model "aons66402" Type: Vdmos1
WARNING: Less than two connections to node NC_01.  This node is used by V2.
Direct Newton iteration failed to find .op point.  (Use ".option noopiter" to skip.)
Starting Gmin stepping
Gmin = 10
Gmin = 1.07374
Gmin = 0.115292
Gmin = 0.0123794
Gmin = 0.00132923
Gmin = 0.000142725
Gmin = 1.5325e-005
Gmin = 1.6455e-006
vernier = 0.5
vernier = 0.25
vernier = 0.125
vernier = 0.0625
vernier = 0.03125
vernier = 0.015625
vernier = 0.0078125
vernier = 0.00390625
vernier = 0.00195313
Gmin = 1.6455e-006
vernier = 0.000976563
vernier = 0.000488281
Gmin = 0
Gmin stepping failed

Starting source stepping with srcstepmethod=0
Source Step = 3.0303%
Source Step = 33.3333%
Source Step = 63.6364%
Source Step = 93.9394%
Source stepping succeeded in finding the operating point.


Date: Tue May 11 16:45:29 2021
Total elapsed time: 2.110 seconds.

tnom = 27
temp = 27
method = modified trap
totiter = 95246
traniter = 92984
tranpoints = 31003
accept = 30607
rejected = 396
matrix size = 49
fillins = 83
solver = Normal
Thread vector: 17.4/7.9[4] 7.7/2.6[4] 3.0/1.9[4] 0.3/1.1[1]  2592/500
Matrix Compiler1: 7.67 KB object code size  1.9/1.7/[0.9]
Matrix Compiler2: 5.86 KB object code size  0.6/0.8/[0.3]

