Circuit: * F:\electricalDesignProjects\beverageWarmer1\ltSpiceSim\pwmSim1.asc

Warning: Multiple definitions of model "aons66402" Type: Vdmos1
Direct Newton iteration failed to find .op point.  (Use ".option noopiter" to skip.)
Starting Gmin stepping
Gmin = 10
Gmin = 1.07374
Gmin = 0.115292
Gmin = 0.0123794
Gmin = 0.00132923
Gmin = 0.000142725
Gmin = 1.5325e-005
Gmin = 1.6455e-006
vernier = 0.5
vernier = 0.25
vernier = 0.125
vernier = 0.0625
vernier = 0.03125
vernier = 0.015625
vernier = 0.0078125
vernier = 0.00390625
vernier = 0.00195313
Gmin = 1.6455e-006
vernier = 0.000976563
vernier = 0.000488281
Gmin = 0
Gmin stepping failed

Starting source stepping with srcstepmethod=0
Source Step = 3.0303%
Source Step = 33.3333%
Source Step = 63.6364%
Source Step = 72.7332%
Starting source stepping with srcstepmethod=1
Source Step = 3.0303%
Source Step = 33.3333%
Source Step = 63.6364%
Source Step = 93.9394%
Source Step = 100%
Source Step = 100%
Source Step = 100%
Source Step = 100%
Source stepping succeeded in finding the operating point.

Heightened Def Con from 0.000680882 to 0.000680882

Date: Thu May 06 22:51:53 2021
Total elapsed time: 3.276 seconds.

tnom = 27
temp = 27
method = modified trap
totiter = 222696
traniter = 217179
tranpoints = 70763
accept = 69609
rejected = 1155
matrix size = 45
fillins = 73
solver = Normal
Thread vector: 18.1/9.1[4] 7.9/3.3[4] 2.9/2.2[4] 0.2/1.0[1]  2592/500
Matrix Compiler1: 6.07 KB object code size  2.5/1.4/[0.7]
Matrix Compiler2: 5.46 KB object code size  0.5/0.9/[0.4]

